* Deltares, D-Flow FM Version 1.2.98.66329M, Apr 07 2020, 10:26:50
* Source: https://svn.oss.deltares.nl/repos/delft3d/trunk/
* File creation date: 09:33:57, 31-08-2020
S0001
   3   2
  2.172341E+02  -2.415445E+01
  4.314185E+02   1.947381E+02
  8.064374E+02   3.987241E+02
S0002
   3   2
  2.894012E+01   2.010146E+02
  2.344944E+02   3.720490E+02
  6.424647E+02   5.917262E+02
S0003
   2   2
  2.265137E+00   2.802553E+02
  2.799988E+02  -2.807726E+01
S0004
   2   2
  5.067361E+02   6.034946E+02
  7.475956E+02   3.336055E+02
S0005
   2   2
  2.673223E+02   4.706788E+02
  5.513401E+02   1.545069E+02
