A
dir
/branches/research/Deltares/20170214-Delft3D-4-DVR/tools_lgpl/matlab/rtc
/branches/research/Deltares/20130603-DAD_uniform_graded/tools_lgpl/matlab/rtc
4278


A
dir
/branches/research/Deltares/20170214-Delft3D-4-DVR/third_party_open/netcdf/lib/win32/Debug/ifort14
/branches/research/Deltares/20130603-DAD_uniform_graded/third_party_open/netcdf/lib/win32/Debug/ifort14
4278


A
dir
/branches/research/Deltares/20170214-Delft3D-4-DVR/engines_gpl/waq/packages/waq_kernel/src/waq_process/solvesaphe
/branches/research/Deltares/20130603-DAD_uniform_graded/engines_gpl/waq/packages/waq_kernel/src/waq_process/solvesaphe
4278


D
dir
/branches/research/Deltares/20170214-Delft3D-4-DVR/utils_lgpl/delftio/packages/diostates




A
dir
/branches/research/Deltares/20170214-Delft3D-4-DVR/third_party_open/netcdf/lib/win32/x64/Release/ifort14
/branches/research/Deltares/20130603-DAD_uniform_graded/third_party_open/netcdf/lib/win32/x64/Release/ifort14
4278


A
dir
/branches/research/Deltares/20170214-Delft3D-4-DVR/third_party_open/netcdf/lib/win32/Release/ifort14
/branches/research/Deltares/20130603-DAD_uniform_graded/third_party_open/netcdf/lib/win32/Release/ifort14
4278


M
dir
/branches/research/Deltares/20170214-Delft3D-4-DVR/utils_lgpl/deltares_common




M
dir
/branches/research/Deltares/20170214-Delft3D-4-DVR




A
dir
/branches/research/Deltares/20170214-Delft3D-4-DVR/third_party_open/netcdf/lib/win32/x64/Debug/ifort14
/branches/research/Deltares/20130603-DAD_uniform_graded/third_party_open/netcdf/lib/win32/x64/Debug/ifort14
4278


A
dir
/branches/research/Deltares/20170214-Delft3D-4-DVR/tools_lgpl/matlab/delftio
/branches/research/Deltares/20130603-DAD_uniform_graded/tools_lgpl/matlab/delftio
4278



