M
dir
/branches/research/Deltares/20170214-Delft3D-4-DVR




M
dir
/branches/research/Deltares/20170214-Delft3D-4-DVR/engines_gpl/flow2d3d/packages/kernel/src/compute




M
dir
/branches/research/Deltares/20170214-Delft3D-4-DVR/engines_gpl/flow2d3d/packages/kernel/src/compute_sediment





