A
dir
/branches/research/Deltares/20170214-Delft3D-4-DVR
/branches/research/Deltares/20130603-DAD_uniform_graded
4091



