* Deltares, D-Flow FM Version 1.2.56.64344M, Jul 16 2019, 14:33:41
* Source: https://svn.oss.deltares.nl/repos/delft3d/trunk/
* File creation date: 10:24:18, 25-07-2019
S0001
   3   2
  1.257514E+02   1.046267E+02
  3.342527E+02   4.646303E+02
  7.340052E+02   4.226299E+02
S0002
   3   2
  5.257514E+02   3.046267E+02
  4.342527E+02   6.646303E+02
  7.340052E+02   6.226299E+02