* Deltares, D-Flow FM Version 1.2.59.64478M, Dec 18 2019, 16:56:47
* Source: https://svn.oss.deltares.nl/repos/delft3d/trunk/
* File creation date: 15:16:59, 09-01-2020
S0001
   3   2
152.001571655273 86.6264953613281
374.752960205078 336.378997802734
850.255920410156 499.130676269531
S0002
   2   2
72.5010681152344 391.129577636719
462.503479003906 90.3765411376953
