* Deltares, D-Flow FM Version 1.2.59.64478M, Dec 18 2019, 16:56:47
* Source: https://svn.oss.deltares.nl/repos/delft3d/trunk/
* File creation date: 10:48:35, 16-01-2020
S0001
   3   2
  91.2511901855469 299.628631591797
  354.502838134766 518.630859375000
  770.755432128906 607.881774902344
S0002
   3   2
  273.502319335938 86.6264953613281
  557.004089355469 316.128814697266
  847.255920410156 409.129730224609
S0003
   2   2
  62.7510070800781 396.379608154297
  350.752807617188 73.8763732910156 
S0004
   2   2
  704.755004882812 636.382019042969
  845.005859375000 285.378509521484