* Deltares, D-Flow FM Version 1.2.98.66329M, Apr 07 2020, 10:26:50
* Source: https://svn.oss.deltares.nl/repos/delft3d/trunk/
* File creation date: 17:26:03, 28-04-2020
S0001
   3   2
  1.542516E+02   7.687640E+01
  3.192526E+02   2.733784E+02
  6.350046E+02   5.231309E+02
S0002
   3   2
  1.310014E+02   9.637659E+01
  2.960025E+02   2.891285E+02
  6.222545E+02   5.418811E+02
S0003
   3   2
  1.782517E+02   5.662619E+01
  3.335027E+02   2.448781E+02
  6.455046E+02   4.983806E+02
S0004
   3   2
  3.500084E+01   1.901275E+02
  2.195020E+02   3.813795E+02
  5.727542E+02   6.221319E+02
S0005
   3   2
  3.177526E+02  -3.712475E+01
  4.377534E+02   1.218768E+02
  7.445052E+02   4.136298E+02
S0006
   2   2
  1.250633E+00   2.748784E+02
  3.620029E+02  -3.337471E+01
S0007
   2   2
  5.030038E+02   6.476321E+02
  7.542553E+02   3.378790E+02
