* Deltares, D-Flow FM Version 1.2.59.64478M, Dec 18 2019, 16:56:47
* Source: https://svn.oss.deltares.nl/repos/delft3d/trunk/
* File creation date: 10:58:07, 08-01-2020
S0001
   3   2
  2.120020E+02   1.556272E+02
  5.292539E+02   4.323800E+02
  9.305065E+02   4.533802E+02
